%nprocshared=1
%mem=500MB
%chk=C:\Users\Gaming\PycharmProjects\computationalChemistryProj1\inputFiles\inputFilestest0.chk
# wb97xd/aug-cc-pvtz geom=connectivity

Title0

0 3
 O                 -0.04000000   -0.05000000    0.00000000
 H                  0.92000000   -0.05000000    0.00000000
 H                 -0.36000000    0.85000000    0.00000000
 O                  4.28571428    0.63909773    0.00000000
 H                  5.24571428    0.63909773    0.00000000
 H                  3.96525969    1.54403357    0.00000000

 1 2 1.0 3 1.0
 2
 3
 4 5 1.0 6 1.0
 5
 6

