%nprocshared=2
%mem=2GB
%chk=C:\Users\Gaming\PycharmProjects\computationalChemistryProj1\test48920\test_00003\Test3ff.chk
# opt=(maxcycle=1200,addgic) hf/3-21g* nosymm geom=connectivity
scf=(maxcyc=1200,xqc)

Title3

0 2
 C                 -0.14139105   -1.52330384   -3.34526753
 H                  0.65153495   -2.22213784   -3.59134353
 H                 -0.80280605   -1.44187084   -4.19387153
 H                  0.29936695   -0.54979884   -3.15638353
 O                 -0.94992805   -1.97991584   -2.24432053
 H                 -0.41271105   -2.07424484   -1.44669653
 O                  0.80844208   -2.73050949    2.02787035
 H                  0.54329708   -3.02157149    2.93155235

 1 2 1.0 3 1.0 4 1.0 5 1.0
 2
 3
 4
 5 6 1.0
 6
 7 8 1.0
 8

XCm1 (Inactive) = XCntr(1-6)
YCm1 (Inactive) = YCntr(1-6)
ZCm1 (Inactive)= ZCntr(1-6)
XCm2 (Inactive) = XCntr(7,8)
YCm2 (Inactive) = YCntr(7,8)
ZCm2 (Inactive)= ZCntr(7,8)
F1F2(FREEZE)=sqrt[(XCm1-XCm2)^2+(YCm1-YCm2)^2+(ZCm1-ZCm2)^2]*0.529177






